data/sourcebus_22000.trafo_75612178_75612178/Loads.dss
New Load.75613665_nmi_elem_75613665 bus1=3103037.3 kV=0.23094010767585033 Vminpu=0.7 Vmaxpu=1.3 model=1 kW=0.0 kvar=0.0 Phases=1
New Load.75613678_nmi_elem_75613678 bus1=3102663.2 kV=0.23094010767585033 Vminpu=0.7 Vmaxpu=1.3 model=1 kW=0.0 kvar=0.0 Phases=1
New Load.75613989_nmi_elem_75613989 bus1=3102547.1 kV=0.23094010767585033 Vminpu=0.7 Vmaxpu=1.3 model=1 kW=0.0 kvar=0.0 Phases=1
New Load.NMI_elem_75612637 bus1=3103037.3 kV=0.23094010767585033 Vminpu=0.7 Vmaxpu=1.3 model=1 kW=1.951476174823392 kvar=0.39626413831880773 Phases=1
New Load.NMI_elem_75612638 bus1=3102683.3 kV=0.23094010767585033 Vminpu=0.7 Vmaxpu=1.3 model=1 kW=0.5891896852563591 kvar=0.11964006834752674 Phases=1
New Load.NMI_elem_75612639 bus1=3103045.3 kV=0.23094010767585033 Vminpu=0.7 Vmaxpu=1.3 model=1 kW=1.8024503375331143 kvar=0.366003151398783 Phases=1
New Load.NMI_elem_75612642 bus1=3103411.3 kV=0.23094010767585033 Vminpu=0.7 Vmaxpu=1.3 model=1 kW=0.855348714115263 kvar=0.17368596426326302 Phases=1
New Load.NMI_elem_75612643 bus1=3103412.3 kV=0.23094010767585033 Vminpu=0.7 Vmaxpu=1.3 model=1 kW=0.9364855669930641 kvar=0.19016150493668762 Phases=1
New Load.NMI_elem_75612644 bus1=3103413.1 kV=0.23094010767585033 Vminpu=0.7 Vmaxpu=1.3 model=1 kW=1.3565769801155819 kvar=0.27546470462919217 Phases=1
New Load.NMI_elem_75612645 bus1=3103414.1 kV=0.23094010767585033 Vminpu=0.7 Vmaxpu=1.3 model=1 kW=1.1048254254120463 kvar=0.22434437111856407 Phases=1
New Load.NMI_elem_75612646 bus1=3103415.2 kV=0.23094010767585033 Vminpu=0.7 Vmaxpu=1.3 model=1 kW=0.9478598563427905 kvar=0.19247115289770662 Phases=1
New Load.NMI_elem_75612647 bus1=3103416.3 kV=0.23094010767585033 Vminpu=0.7 Vmaxpu=1.3 model=1 kW=0.5838816570439652 kvar=0.11856222724811054 Phases=1
New Load.NMI_elem_75612648 bus1=3103038.2 kV=0.23094010767585033 Vminpu=0.7 Vmaxpu=1.3 model=1 kW=2.0458606792186142 kvar=0.41542972936590585 Phases=1
New Load.NMI_elem_75612649 bus1=3102723.1 kV=0.23094010767585033 Vminpu=0.7 Vmaxpu=1.3 model=1 kW=1.1298489198342185 kvar=0.22942560838031283 Phases=1
New Load.NMI_elem_75612650 bus1=3102663.2 kV=0.23094010767585033 Vminpu=0.7 Vmaxpu=1.3 model=1 kW=2.2498401608005246 kvar=0.4568495296927471 Phases=1
New Load.NMI_elem_75612651 bus1=3102986.1 kV=0.23094010767585033 Vminpu=0.7 Vmaxpu=1.3 model=1 kW=1.053261898401857 kvar=0.21387395038630967 Phases=1
New Load.NMI_elem_75612652 bus1=3103417.1 kV=0.23094010767585033 Vminpu=0.7 Vmaxpu=1.3 model=1 kW=0.5800902393133846 kvar=0.1177923470418348 Phases=1
New Load.NMI_elem_75612653 bus1=3103418.2 kV=0.23094010767585033 Vminpu=0.7 Vmaxpu=1.3 model=1 kW=0.8303252196930908 kvar=0.16860472700151428 Phases=1
New Load.NMI_elem_75612654 bus1=3102962.1 kV=0.23094010767585033 Vminpu=0.7 Vmaxpu=1.3 model=1 kW=3.6541892140377314 kvar=0.7420147675057262 Phases=1
New Load.NMI_elem_75612655 bus1=3102933.1 kV=0.23094010767585033 Vminpu=0.7 Vmaxpu=1.3 model=1 kW=1.0236886448502135 kvar=0.20786884512952315 Phases=1
New Load.NMI_elem_75612707 bus1=3102584.2 kV=0.23094010767585033 Vminpu=0.7 Vmaxpu=1.3 model=1 kW=0.34502100217196934 kvar=0.07005950259164194 Phases=1
New Load.NMI_elem_75612708 bus1=3103426.3 kV=0.23094010767585033 Vminpu=0.7 Vmaxpu=1.3 model=1 kW=1.1882371216965996 kvar=0.2412818384473157 Phases=1
New Load.NMI_elem_75612709 bus1=3102618.3 kV=0.23094010767585033 Vminpu=0.7 Vmaxpu=1.3 model=1 kW=1.886620194426638 kvar=0.38309456980533767 Phases=1
New Load.NMI_elem_75612710 bus1=3103010.3 kV=0.23094010767585033 Vminpu=0.7 Vmaxpu=1.3 model=1 kW=0.9615090614152361 kvar=0.19524274219843634 Phases=1
New Load.NMI_elem_75612711 bus1=3102970.3 kV=0.23094010767585033 Vminpu=0.7 Vmaxpu=1.3 model=1 kW=1.574963972010845 kvar=0.3198100747033334 Phases=1
New Load.NMI_elem_75612712 bus1=3102698.3 kV=0.23094010767585033 Vminpu=0.7 Vmaxpu=1.3 model=1 kW=1.734204456802821 kvar=0.3521452342639016 Phases=1
New Load.NMI_elem_75612713 bus1=3103427.3 kV=0.23094010767585033 Vminpu=0.7 Vmaxpu=1.3 model=1 kW=2.7139124101040068 kvar=0.5510834190737219 Phases=1
New Load.NMI_elem_75612717 bus1=3102482.3 kV=0.23094010767585033 Vminpu=0.7 Vmaxpu=1.3 model=1 kW=1.951476174823392 kvar=0.39626413831880773 Phases=1
New Load.NMI_elem_75612807 bus1=3103455.3 kV=0.23094010767585033 Vminpu=0.7 Vmaxpu=1.3 model=1 kW=0.8947797188507879 kvar=0.18169277127231178 Phases=1
New Load.NMI_elem_75612958 bus1=3102444.3 kV=0.23094010767585033 Vminpu=0.7 Vmaxpu=1.3 model=1 kW=1.951476174823392 kvar=0.39626413831880773 Phases=1
New Load.NMI_elem_75612961 bus1=3102547.1 kV=0.23094010767585033 Vminpu=0.7 Vmaxpu=1.3 model=1 kW=1.8540139368592726 kvar=0.37647358681542107 Phases=1
New Load.NMI_elem_75612992 bus1=3103475.3 kV=0.23094010767585033 Vminpu=0.7 Vmaxpu=1.3 model=1 kW=4.2263398300460885 kvar=0.8581949052733036 Phases=1
New Load.NMI_elem_75613203 bus1=3103504.1 kV=0.23094010767585033 Vminpu=0.7 Vmaxpu=1.3 model=1 kW=1.951476174823392 kvar=0.39626413831880773 Phases=1
New Load.NMI_elem_75613213 bus1=3103506.1 kV=0.23094010767585033 Vminpu=0.7 Vmaxpu=1.3 model=1 kW=1.6726938641343356 kvar=0.33965497570183514 Phases=1
